10
	Energy:      18.9743230
O          2.32650       -0.29038       -0.55505
C          2.76327        1.04837       -0.35968
C          3.98524        1.07294        0.54806
O          4.42205        2.41168        0.74338
H          1.54904       -0.24760       -1.13832
H          1.94762        1.63064        0.08205
H          3.00067        1.49341       -1.33181
H          4.80087        0.49062        0.10636
H          3.74783        0.62794        1.52021
H          5.19956        2.36889        1.32658
