10
	Energy:      16.0652523
O          2.88441       -0.22262       -0.38356
C          3.01929        1.19612       -0.31974
C          4.17418        1.55234        0.60796
O          3.90286        1.00880        1.90120
H          2.91131       -0.51715        0.54870
H          2.07541        1.60040        0.05896
H          3.19305        1.57657       -1.32985
H          4.28749        2.63665        0.69328
H          5.10770        1.10805        0.24926
H          4.66179        1.23816        2.46607
