14
	Energy:      -5.0759756
C         -5.03929        1.70790       -0.14120
C         -4.08900        0.67859        0.44949
C         -2.66095        1.21479        0.52684
C         -1.71066        0.18548        1.11753
H         -4.73708        1.98370       -1.15656
H         -5.06264        2.61621        0.46936
H         -6.05524        1.30338       -0.18726
H         -4.43731        0.40050        1.45105
H         -4.11359       -0.22844       -0.16571
H         -2.31263        1.49288       -0.47472
H         -2.63636        2.12182        1.14204
H         -1.68731       -0.72282        0.50697
H         -2.01286       -0.09032        2.13289
H         -0.69471        0.59001        1.16359
