14
	Energy:      -4.2937982
C         -5.08723        1.67592       -0.18706
C         -4.10392        0.71647        0.46543
C         -2.67458        1.25616        0.52363
C         -2.52543        2.48029        1.41383
H         -4.75203        1.96091       -1.18930
H         -5.21467        2.58531        0.40744
H         -6.06918        1.20102       -0.28070
H         -4.45123        0.47006        1.47557
H         -4.09933       -0.21980       -0.10535
H         -2.01917        0.46472        0.90633
H         -2.32478        1.49606       -0.48722
H         -2.89219        2.27792        2.42506
H         -3.07293        3.33771        1.01166
H         -1.47090        2.76521        1.48679
