23
	Energy:     105.3599705
O          3.94271        5.65797       -3.07176
C          3.14647        5.11013       -4.11874
C          3.87618        5.26621       -5.46053
H          4.32873        6.26104       -5.53454
O          4.96386        4.30197       -5.50195
C          4.73517        3.37410       -6.59406
C          3.23251        3.48627       -6.89044
H          2.66702        2.90543       -6.15072
C          2.96001        4.96148       -6.64803
H          1.90311        5.17990       -6.47036
O          3.34304        5.67869       -7.82745
O          2.81594        3.05449       -8.17811
C          5.58839        3.73542       -7.75232
N          6.26488        4.00590       -8.65812
C          5.10962        1.97289       -6.11374
H          2.96750        4.05503       -3.88742
H          2.19504        5.65041       -4.12479
H          3.36770        6.63033       -7.61699
H          2.99155        3.80635       -8.78489
H          4.54572        1.70310       -5.21339
H          6.17007        1.92277       -5.83842
H          4.92083        1.21615       -6.88299
H          3.53533        5.40280       -2.22620
